# read data from object into file
read_data          test_structure.in
  orthogonal box = (0 0 0) to (1.212 1.212 1.212)
  reading atoms ...
  15 atoms
  scanning bonds ...
  reading bonds ...
  12 bonds

# define interactions
neighbor      0.4 bin
neigh_modify  every 10 one 10000
comm_modify   mode single cutoff 1.9 vel yes
pair_style    lj/cut 1.5
pair_coeff    * * 0.05 0.3
bond_style    fene
special_bonds fene
bond_coeff    1 30.0 3.5 0.05 0.5

#-----------------------------------------------------------------------------------
# EQUILIBRATION STAGE 1
# Description: {description}
#-----------------------------------------------------------------------------------
velocity        all create 0.05 1231
fix             1 all nve/limit 0.3
fix             2 all langevin 0.05 0.05 10.0 29340
thermo_style    custom step temp press
thermo          100
run             5000
  update every 10 steps, delay 10 steps, check yes
Step Temp Press
0         0.05   -21.832629
Averages over the last 26 of 51 rows, steps 2500 to 5000:
Temp Press
0.0885625 -0.377229
Loop time of 0.143421 on 1 procs for 5000 steps with 15 atoms

unfix 1
unfix 2
write_restart   restart.test_lattice.in.polylattice1
