# read data from object into file
read_data          test_structure.in
  orthogonal box = (0 0 0) to (50 50 50)
  reading atoms ...
  500 atoms
  scanning bonds ...
  reading bonds ...
  499 bonds

# define interactions
neighbor      1.0 multi
neigh_modify  every 10 one 1000
pair_style    lj/cut 1.5
pair_coeff    1 1 0.2 1.0
pair_style    lj/cut 1.5
pair_coeff    1 2 0.2 1.0
pair_style    lj/cut 1.5
pair_coeff    2 2 1.0 1.0

bond_style    fene
special_bonds fene
bond_coeff    1 30.0 1.5 1.0 1.0
compute         1 all stress/atom NULL

#---------------------------------------------------------------------------------------------------
# EQUILIBRATION STAGE 1
# Description: {description}
#---------------------------------------------------------------------------------------------------
velocity        all create 1.0 38985
fix             1 all nve/limit 1.5
fix             2 all langevin 1.0 1.0 10.0 38985
thermo_style    custom step temp press pe ke
thermo          1000
run             10000
  update every 10 steps, delay 10 steps, check yes
Step Temp Press PotEng KinEng
0            1  -0.11084452    27.515607        1.497
Averages over the last 6 of 11 rows, steps 5000 to 10000:
Temp Press PotEng KinEng
1.03972 -0.00041317 20.4248 1.55646
Loop time of 0.440403 on 1 procs for 10000 steps with 500 atoms

unfix 1
unfix 2
write_restart   restart.test_settings.in.polylattice1

Please see the log.cite file for references relevant to this simulation
