# read data from object into file
read_data          int_structure.in
  orthogonal box = (0 0 0) to (20 20 20)
  reading atoms ...
  100 atoms
  scanning bonds ...
  reading bonds ...
  99 bonds

# define interactions
neighbor      4.0 multi
neigh_modify  every 10 one 10000
pair_style    lj/cut 1.5
pair_coeff    1 1 0.2 0.01
pair_style    lj/cut 1.5
pair_coeff    1 2 0.2 0.01
pair_style    lj/cut 1.5
pair_coeff    2 2 0.5 0.01

bond_style    fene
special_bonds fene
bond_coeff    1 30 1.5 1.0 1.0
compute         1 all stress/atom NULL

#---------------------------------------------------------------------------------------------------
# POTENTIAL MODIFICATION STAGE
#---------------------------------------------------------------------------------------------------
pair_style    lj/cut/soft 1.0 1.0 1.5
pair_coeff    1 2 0.2 0.059500000000000004 0.1
pair_style    lj/cut/soft 1.0 1.0 1.5
pair_coeff    1 1 0.2 0.059500000000000004 0.1
pair_style    lj/cut/soft 1.0 1.0 1.5
pair_coeff    2 2 0.5 0.059500000000000004 0.1
velocity        all create 1.0 52690
fix             1 all nve/limit 1.5
fix             2 all langevin 1.0 1.0 10 52690
thermo_style    custom step temp press pe ke
thermo          100
run             100
  update every 10 steps, delay 10 steps, check yes
Step Temp Press PotEng KinEng
0            1  -0.34174293     27.41905        1.485
Loop time of 0.00179195 on 1 procs for 100 steps with 100 atoms

unfix 1
unfix 2

pair_style    lj/cut/soft 1.0 1.0 1.5
pair_coeff    1 2 0.2 0.10900000000000001 0.1
pair_style    lj/cut/soft 1.0 1.0 1.5
pair_coeff    1 1 0.2 0.10900000000000001 0.1
pair_style    lj/cut/soft 1.0 1.0 1.5
pair_coeff    2 2 0.5 0.10900000000000001 0.1
velocity        all create 1.0 52690
fix             1 all nve/limit 1.5
fix             2 all langevin 1.0 1.0 10 52690
thermo_style    custom step temp press pe ke
thermo          100
run             100
Step Temp Press PotEng KinEng
100            1 0.0084365559    23.345086        1.485
Loop time of 0.00172901 on 1 procs for 100 steps with 100 atoms

unfix 1
unfix 2

pair_style    lj/cut/soft 1.0 1.0 1.5
pair_coeff    1 2 0.2 0.15850000000000003 0.1
pair_style    lj/cut/soft 1.0 1.0 1.5
pair_coeff    1 1 0.2 0.15850000000000003 0.1
pair_style    lj/cut/soft 1.0 1.0 1.5
pair_coeff    2 2 0.5 0.15850000000000003 0.1
velocity        all create 1.0 52690
fix             1 all nve/limit 1.5
fix             2 all langevin 1.0 1.0 10 52690
thermo_style    custom step temp press pe ke
thermo          100
run             100
Step Temp Press PotEng KinEng
200            1   0.01647278    21.578605        1.485
Loop time of 0.00165105 on 1 procs for 100 steps with 100 atoms

unfix 1
unfix 2

pair_style    lj/cut/soft 1.0 1.0 1.5
pair_coeff    1 2 0.2 0.20800000000000002 0.1
pair_style    lj/cut/soft 1.0 1.0 1.5
pair_coeff    1 1 0.2 0.20800000000000002 0.1
pair_style    lj/cut/soft 1.0 1.0 1.5
pair_coeff    2 2 0.5 0.20800000000000002 0.1
velocity        all create 1.0 52690
fix             1 all nve/limit 1.5
fix             2 all langevin 1.0 1.0 10 52690
thermo_style    custom step temp press pe ke
thermo          100
run             100
Step Temp Press PotEng KinEng
300            1 -0.022618458     20.89546        1.485
Loop time of 0.00171304 on 1 procs for 100 steps with 100 atoms

unfix 1
unfix 2

pair_style    lj/cut/soft 1.0 1.0 1.5
pair_coeff    1 2 0.2 0.2575 0.1
pair_style    lj/cut/soft 1.0 1.0 1.5
pair_coeff    1 1 0.2 0.2575 0.1
pair_style    lj/cut/soft 1.0 1.0 1.5
pair_coeff    2 2 0.5 0.2575 0.1
velocity        all create 1.0 52690
fix             1 all nve/limit 1.5
fix             2 all langevin 1.0 1.0 10 52690
thermo_style    custom step temp press pe ke
thermo          100
run             100
Step Temp Press PotEng KinEng
400            1 -0.0046948295    20.592891        1.485
Loop time of 0.00159383 on 1 procs for 100 steps with 100 atoms

unfix 1
unfix 2

pair_style    lj/cut/soft 1.0 1.0 1.5
pair_coeff    1 2 0.2 0.307 0.1
pair_style    lj/cut/soft 1.0 1.0 1.5
pair_coeff    1 1 0.2 0.307 0.1
pair_style    lj/cut/soft 1.0 1.0 1.5
pair_coeff    2 2 0.5 0.307 0.1
velocity        all create 1.0 52690
fix             1 all nve/limit 1.5
fix             2 all langevin 1.0 1.0 10 52690
thermo_style    custom step temp press pe ke
thermo          100
run             100
Step Temp Press PotEng KinEng
500            1 -0.018552831    20.577238        1.485
Loop time of 0.00157619 on 1 procs for 100 steps with 100 atoms

unfix 1
unfix 2

pair_style    lj/cut/soft 1.0 1.0 1.5
pair_coeff    1 2 0.2 0.3565 0.1
pair_style    lj/cut/soft 1.0 1.0 1.5
pair_coeff    1 1 0.2 0.3565 0.1
pair_style    lj/cut/soft 1.0 1.0 1.5
pair_coeff    2 2 0.5 0.3565 0.1
velocity        all create 1.0 52690
fix             1 all nve/limit 1.5
fix             2 all langevin 1.0 1.0 10 52690
thermo_style    custom step temp press pe ke
thermo          100
run             100
Step Temp Press PotEng KinEng
600            1 0.0036273562    20.530977        1.485
Loop time of 0.00160098 on 1 procs for 100 steps with 100 atoms

unfix 1
unfix 2

pair_style    lj/cut/soft 1.0 1.0 1.5
pair_coeff    1 2 0.2 0.40599999999999997 0.1
pair_style    lj/cut/soft 1.0 1.0 1.5
pair_coeff    1 1 0.2 0.40599999999999997 0.1
pair_style    lj/cut/soft 1.0 1.0 1.5
pair_coeff    2 2 0.5 0.40599999999999997 0.1
velocity        all create 1.0 52690
fix             1 all nve/limit 1.5
fix             2 all langevin 1.0 1.0 10 52690
thermo_style    custom step temp press pe ke
thermo          100
run             100
Step Temp Press PotEng KinEng
700            1  0.020682743    20.512045        1.485
Loop time of 0.0015099 on 1 procs for 100 steps with 100 atoms

unfix 1
unfix 2

pair_style    lj/cut/soft 1.0 1.0 1.5
pair_coeff    1 2 0.2 0.45549999999999996 0.1
pair_style    lj/cut/soft 1.0 1.0 1.5
pair_coeff    1 1 0.2 0.45549999999999996 0.1
pair_style    lj/cut/soft 1.0 1.0 1.5
pair_coeff    2 2 0.5 0.45549999999999996 0.1
velocity        all create 1.0 52690
fix             1 all nve/limit 1.5
fix             2 all langevin 1.0 1.0 10 52690
thermo_style    custom step temp press pe ke
thermo          100
run             100
Step Temp Press PotEng KinEng
800            1 -0.011684941    20.562871        1.485
Loop time of 0.0014801 on 1 procs for 100 steps with 100 atoms

unfix 1
unfix 2

pair_style    lj/cut/soft 1.0 1.0 1.5
pair_coeff    1 2 0.2 0.505 0.1
pair_style    lj/cut/soft 1.0 1.0 1.5
pair_coeff    1 1 0.2 0.505 0.1
pair_style    lj/cut/soft 1.0 1.0 1.5
pair_coeff    2 2 0.5 0.505 0.1
velocity        all create 1.0 52690
fix             1 all nve/limit 1.5
fix             2 all langevin 1.0 1.0 10 52690
thermo_style    custom step temp press pe ke
thermo          100
run             100
Step Temp Press PotEng KinEng
900            1 -0.0045083355    20.547313        1.485
Loop time of 0.00148606 on 1 procs for 100 steps with 100 atoms

unfix 1
unfix 2

pair_style    lj/cut/soft 1.0 1.0 1.5
pair_coeff    1 2 0.2 0.5545 0.1
pair_style    lj/cut/soft 1.0 1.0 1.5
pair_coeff    1 1 0.2 0.5545 0.1
pair_style    lj/cut/soft 1.0 1.0 1.5
pair_coeff    2 2 0.5 0.5545 0.1
velocity        all create 1.0 52690
fix             1 all nve/limit 1.5
fix             2 all langevin 1.0 1.0 10 52690
thermo_style    custom step temp press pe ke
thermo          100
run             100
Step Temp Press PotEng KinEng
1000            1 -0.0089139873    20.555492        1.485
Loop time of 0.00143003 on 1 procs for 100 steps with 100 atoms

unfix 1
unfix 2

pair_style    lj/cut/soft 1.0 1.0 1.5
pair_coeff    1 2 0.2 0.604 0.1
pair_style    lj/cut/soft 1.0 1.0 1.5
pair_coeff    1 1 0.2 0.604 0.1
pair_style    lj/cut/soft 1.0 1.0 1.5
pair_coeff    2 2 0.5 0.604 0.1
velocity        all create 1.0 52690
fix             1 all nve/limit 1.5
fix             2 all langevin 1.0 1.0 10 52690
thermo_style    custom step temp press pe ke
thermo          100
run             100
Step Temp Press PotEng KinEng
1100            1 -0.013333601    20.581681        1.485
Loop time of 0.0014081 on 1 procs for 100 steps with 100 atoms

unfix 1
unfix 2

pair_style    lj/cut/soft 1.0 1.0 1.5
pair_coeff    1 2 0.2 0.6535 0.1
pair_style    lj/cut/soft 1.0 1.0 1.5
pair_coeff    1 1 0.2 0.6535 0.1
pair_style    lj/cut/soft 1.0 1.0 1.5
pair_coeff    2 2 0.5 0.6535 0.1
velocity        all create 1.0 52690
fix             1 all nve/limit 1.5
fix             2 all langevin 1.0 1.0 10 52690
thermo_style    custom step temp press pe ke
thermo          100
run             100
Step Temp Press PotEng KinEng
1200            1 -0.0044844215    20.640034        1.485
Loop time of 0.00139713 on 1 procs for 100 steps with 100 atoms

unfix 1
unfix 2

pair_style    lj/cut/soft 1.0 1.0 1.5
pair_coeff    1 2 0.2 0.703 0.1
pair_style    lj/cut/soft 1.0 1.0 1.5
pair_coeff    1 1 0.2 0.703 0.1
pair_style    lj/cut/soft 1.0 1.0 1.5
pair_coeff    2 2 0.5 0.703 0.1
velocity        all create 1.0 52690
fix             1 all nve/limit 1.5
fix             2 all langevin 1.0 1.0 10 52690
thermo_style    custom step temp press pe ke
thermo          100
run             100
Step Temp Press PotEng KinEng
1300            1 -0.0079909455    20.545057        1.485
Loop time of 0.00139308 on 1 procs for 100 steps with 100 atoms

unfix 1
unfix 2

pair_style    lj/cut/soft 1.0 1.0 1.5
pair_coeff    1 2 0.2 0.7525 0.1
pair_style    lj/cut/soft 1.0 1.0 1.5
pair_coeff    1 1 0.2 0.7525 0.1
pair_style    lj/cut/soft 1.0 1.0 1.5
pair_coeff    2 2 0.5 0.7525 0.1
velocity        all create 1.0 52690
fix             1 all nve/limit 1.5
fix             2 all langevin 1.0 1.0 10 52690
thermo_style    custom step temp press pe ke
thermo          100
run             100
Step Temp Press PotEng KinEng
1400            1 -0.015224429    20.705803        1.485
Loop time of 0.00137901 on 1 procs for 100 steps with 100 atoms

unfix 1
unfix 2

pair_style    lj/cut/soft 1.0 1.0 1.5
pair_coeff    1 2 0.2 0.8019999999999999 0.1
pair_style    lj/cut/soft 1.0 1.0 1.5
pair_coeff    1 1 0.2 0.8019999999999999 0.1
pair_style    lj/cut/soft 1.0 1.0 1.5
pair_coeff    2 2 0.5 0.8019999999999999 0.1
velocity        all create 1.0 52690
fix             1 all nve/limit 1.5
fix             2 all langevin 1.0 1.0 10 52690
thermo_style    custom step temp press pe ke
thermo          100
run             100
Step Temp Press PotEng KinEng
1500            1 -0.019844311    20.631932        1.485
Loop time of 0.00137591 on 1 procs for 100 steps with 100 atoms

unfix 1
unfix 2

pair_style    lj/cut/soft 1.0 1.0 1.5
pair_coeff    1 2 0.2 0.8514999999999999 0.1
pair_style    lj/cut/soft 1.0 1.0 1.5
pair_coeff    1 1 0.2 0.8514999999999999 0.1
pair_style    lj/cut/soft 1.0 1.0 1.5
pair_coeff    2 2 0.5 0.8514999999999999 0.1
velocity        all create 1.0 52690
fix             1 all nve/limit 1.5
fix             2 all langevin 1.0 1.0 10 52690
thermo_style    custom step temp press pe ke
thermo          100
run             100
Step Temp Press PotEng KinEng
1600            1 -0.0050957229     20.50768        1.485
Loop time of 0.001333 on 1 procs for 100 steps with 100 atoms

unfix 1
unfix 2

pair_style    lj/cut/soft 1.0 1.0 1.5
pair_coeff    1 2 0.2 0.9009999999999999 0.1
pair_style    lj/cut/soft 1.0 1.0 1.5
pair_coeff    1 1 0.2 0.9009999999999999 0.1
pair_style    lj/cut/soft 1.0 1.0 1.5
pair_coeff    2 2 0.5 0.9009999999999999 0.1
velocity        all create 1.0 52690
fix             1 all nve/limit 1.5
fix             2 all langevin 1.0 1.0 10 52690
thermo_style    custom step temp press pe ke
thermo          100
run             100
Step Temp Press PotEng KinEng
1700            1 -0.010537599    20.572018        1.485
Loop time of 0.0013361 on 1 procs for 100 steps with 100 atoms

unfix 1
unfix 2

pair_style    lj/cut/soft 1.0 1.0 1.5
pair_coeff    1 2 0.2 0.9504999999999999 0.1
pair_style    lj/cut/soft 1.0 1.0 1.5
pair_coeff    1 1 0.2 0.9504999999999999 0.1
pair_style    lj/cut/soft 1.0 1.0 1.5
pair_coeff    2 2 0.5 0.9504999999999999 0.1
velocity        all create 1.0 52690
fix             1 all nve/limit 1.5
fix             2 all langevin 1.0 1.0 10 52690
thermo_style    custom step temp press pe ke
thermo          100
run             100
Step Temp Press PotEng KinEng
1800            1 -0.0055277267    20.588332        1.485
Loop time of 0.00150299 on 1 procs for 100 steps with 100 atoms

unfix 1
unfix 2

pair_style    lj/cut/soft 1.0 1.0 1.5
pair_coeff    1 2 0.2 0.9999999999999999 0.1
pair_style    lj/cut/soft 1.0 1.0 1.5
pair_coeff    1 1 0.2 0.9999999999999999 0.1
pair_style    lj/cut/soft 1.0 1.0 1.5
pair_coeff    2 2 0.5 0.9999999999999999 0.1
velocity        all create 1.0 52690
fix             1 all nve/limit 1.5
fix             2 all langevin 1.0 1.0 10 52690
thermo_style    custom step temp press pe ke
thermo          100
run             100
Step Temp Press PotEng KinEng
1900            1  0.014326813    20.630536        1.485
Loop time of 0.00148892 on 1 procs for 100 steps with 100 atoms

unfix 1
unfix 2

#---------------------------------------------------------------------------------------------------
# EQUILIBRATION STAGE 1
#---------------------------------------------------------------------------------------------------
velocity        all create 1.0 58841
fix             1 all nve/limit 1.5
fix             2 all langevin 1.0 1.0 10.0 58841
thermo_style    custom step temp press pe ke
thermo          100
run             100000
Step Temp Press PotEng KinEng
2000            1 -0.0062710632    20.585926        1.485
Averages over the last 501 of 1001 rows, steps 52000 to 102000:
Temp Press PotEng KinEng
0.990334 -0.000351332 20.458 1.47065
Loop time of 2.89041 on 1 procs for 100000 steps with 100 atoms

unfix 1
unfix 2
write_restart   restart.int_settings.in.polylattice1

#---------------------------------------------------------------------------------------------------
# POTENTIAL MODIFICATION STAGE
#---------------------------------------------------------------------------------------------------
pair_style    lj/cut/soft 1.0 1.0 1.5
pair_coeff    1 2 0.2 1.0 0.109
pair_style    lj/cut/soft 1.0 1.0 1.5
pair_coeff    1 1 0.2 1.0 0.109
pair_style    lj/cut/soft 1.0 1.0 1.5
pair_coeff    2 2 0.5 1.0 0.109
velocity        all scale 1.0
fix             1 all nve/limit 1.5
fix             2 all langevin 1.0 1.0 1 52690
thermo_style    custom step temp press pe ke
thermo          100
run             100
Step Temp Press PotEng KinEng
102000            1 0.0024059134     20.45016        1.485
Loop time of 0.00243402 on 1 procs for 100 steps with 100 atoms

unfix 1
unfix 2

pair_style    lj/cut/soft 1.0 1.0 1.5
pair_coeff    1 2 0.2 1.0 0.118
pair_style    lj/cut/soft 1.0 1.0 1.5
pair_coeff    1 1 0.2 1.0 0.118
pair_style    lj/cut/soft 1.0 1.0 1.5
pair_coeff    2 2 0.5 1.0 0.118
velocity        all scale 1.0
fix             1 all nve/limit 1.5
fix             2 all langevin 1.0 1.0 1 52690
thermo_style    custom step temp press pe ke
thermo          100
run             100
Step Temp Press PotEng KinEng
102100            1 -0.018907481    20.595602        1.485
Loop time of 0.00235009 on 1 procs for 100 steps with 100 atoms

unfix 1
unfix 2

pair_style    lj/cut/soft 1.0 1.0 1.5
pair_coeff    1 2 0.2 1.0 0.127
pair_style    lj/cut/soft 1.0 1.0 1.5
pair_coeff    1 1 0.2 1.0 0.127
pair_style    lj/cut/soft 1.0 1.0 1.5
pair_coeff    2 2 0.5 1.0 0.127
velocity        all scale 1.0
fix             1 all nve/limit 1.5
fix             2 all langevin 1.0 1.0 1 52690
thermo_style    custom step temp press pe ke
thermo          100
run             100
Step Temp Press PotEng KinEng
102200            1 0.0068024914    20.638588        1.485
Loop time of 0.00234604 on 1 procs for 100 steps with 100 atoms

unfix 1
unfix 2

pair_style    lj/cut/soft 1.0 1.0 1.5
pair_coeff    1 2 0.2 1.0 0.136
pair_style    lj/cut/soft 1.0 1.0 1.5
pair_coeff    1 1 0.2 1.0 0.136
pair_style    lj/cut/soft 1.0 1.0 1.5
pair_coeff    2 2 0.5 1.0 0.136
velocity        all scale 1.0
fix             1 all nve/limit 1.5
fix             2 all langevin 1.0 1.0 1 52690
thermo_style    custom step temp press pe ke
thermo          100
run             100
Step Temp Press PotEng KinEng
102300            1 0.0091669858    20.422514        1.485
Loop time of 0.00239897 on 1 procs for 100 steps with 100 atoms

unfix 1
unfix 2

pair_style    lj/cut/soft 1.0 1.0 1.5
pair_coeff    1 2 0.2 1.0 0.14500000000000002
pair_style    lj/cut/soft 1.0 1.0 1.5
pair_coeff    1 1 0.2 1.0 0.14500000000000002
pair_style    lj/cut/soft 1.0 1.0 1.5
pair_coeff    2 2 0.5 1.0 0.14500000000000002
velocity        all scale 1.0
fix             1 all nve/limit 1.5
fix             2 all langevin 1.0 1.0 1 52690
thermo_style    custom step temp press pe ke
thermo          100
run             100
Step Temp Press PotEng KinEng
102400            1 0.0057778601    20.490873        1.485
Loop time of 0.00221992 on 1 procs for 100 steps with 100 atoms

unfix 1
unfix 2

pair_style    lj/cut/soft 1.0 1.0 1.5
pair_coeff    1 2 0.2 1.0 0.15400000000000003
pair_style    lj/cut/soft 1.0 1.0 1.5
pair_coeff    1 1 0.2 1.0 0.15400000000000003
pair_style    lj/cut/soft 1.0 1.0 1.5
pair_coeff    2 2 0.5 1.0 0.15400000000000003
velocity        all scale 1.0
fix             1 all nve/limit 1.5
fix             2 all langevin 1.0 1.0 1 52690
thermo_style    custom step temp press pe ke
thermo          100
run             100
Step Temp Press PotEng KinEng
102500            1 0.0036628496    20.434517        1.485
Loop time of 0.00224018 on 1 procs for 100 steps with 100 atoms

unfix 1
unfix 2

pair_style    lj/cut/soft 1.0 1.0 1.5
pair_coeff    1 2 0.2 1.0 0.16300000000000003
pair_style    lj/cut/soft 1.0 1.0 1.5
pair_coeff    1 1 0.2 1.0 0.16300000000000003
pair_style    lj/cut/soft 1.0 1.0 1.5
pair_coeff    2 2 0.5 1.0 0.16300000000000003
velocity        all scale 1.0
fix             1 all nve/limit 1.5
fix             2 all langevin 1.0 1.0 1 52690
thermo_style    custom step temp press pe ke
thermo          100
run             100
Step Temp Press PotEng KinEng
102600            1 -0.021301019    20.460002        1.485
Loop time of 0.002244 on 1 procs for 100 steps with 100 atoms

unfix 1
unfix 2

pair_style    lj/cut/soft 1.0 1.0 1.5
pair_coeff    1 2 0.2 1.0 0.17200000000000004
pair_style    lj/cut/soft 1.0 1.0 1.5
pair_coeff    1 1 0.2 1.0 0.17200000000000004
pair_style    lj/cut/soft 1.0 1.0 1.5
pair_coeff    2 2 0.5 1.0 0.17200000000000004
velocity        all scale 1.0
fix             1 all nve/limit 1.5
fix             2 all langevin 1.0 1.0 1 52690
thermo_style    custom step temp press pe ke
thermo          100
run             100
Step Temp Press PotEng KinEng
102700            1 -0.0016584338    20.404164        1.485
Loop time of 0.00204897 on 1 procs for 100 steps with 100 atoms

unfix 1
unfix 2

pair_style    lj/cut/soft 1.0 1.0 1.5
pair_coeff    1 2 0.2 1.0 0.18100000000000005
pair_style    lj/cut/soft 1.0 1.0 1.5
pair_coeff    1 1 0.2 1.0 0.18100000000000005
pair_style    lj/cut/soft 1.0 1.0 1.5
pair_coeff    2 2 0.5 1.0 0.18100000000000005
velocity        all scale 1.0
fix             1 all nve/limit 1.5
fix             2 all langevin 1.0 1.0 1 52690
thermo_style    custom step temp press pe ke
thermo          100
run             100
Step Temp Press PotEng KinEng
102800            1 0.0035771255     20.40443        1.485
Loop time of 0.00204897 on 1 procs for 100 steps with 100 atoms

unfix 1
unfix 2

pair_style    lj/cut/soft 1.0 1.0 1.5
pair_coeff    1 2 0.2 1.0 0.19000000000000006
pair_style    lj/cut/soft 1.0 1.0 1.5
pair_coeff    1 1 0.2 1.0 0.19000000000000006
pair_style    lj/cut/soft 1.0 1.0 1.5
pair_coeff    2 2 0.5 1.0 0.19000000000000006
velocity        all scale 1.0
fix             1 all nve/limit 1.5
fix             2 all langevin 1.0 1.0 1 52690
thermo_style    custom step temp press pe ke
thermo          100
run             100
Step Temp Press PotEng KinEng
102900            1 0.0076421828    20.436894        1.485
Loop time of 0.00205898 on 1 procs for 100 steps with 100 atoms

unfix 1
unfix 2

pair_style    lj/cut/soft 1.0 1.0 1.5
pair_coeff    1 2 0.2 1.0 0.19900000000000007
pair_style    lj/cut/soft 1.0 1.0 1.5
pair_coeff    1 1 0.2 1.0 0.19900000000000007
pair_style    lj/cut/soft 1.0 1.0 1.5
pair_coeff    2 2 0.5 1.0 0.19900000000000007
velocity        all scale 1.0
fix             1 all nve/limit 1.5
fix             2 all langevin 1.0 1.0 1 52690
thermo_style    custom step temp press pe ke
thermo          100
run             100
Step Temp Press PotEng KinEng
103000            1  0.004423024    20.469215        1.485
Loop time of 0.00200987 on 1 procs for 100 steps with 100 atoms

unfix 1
unfix 2

pair_style    lj/cut/soft 1.0 1.0 1.5
pair_coeff    1 2 0.2 1.0 0.20800000000000007
pair_style    lj/cut/soft 1.0 1.0 1.5
pair_coeff    1 1 0.2 1.0 0.20800000000000007
pair_style    lj/cut/soft 1.0 1.0 1.5
pair_coeff    2 2 0.5 1.0 0.20800000000000007
velocity        all scale 1.0
fix             1 all nve/limit 1.5
fix             2 all langevin 1.0 1.0 1 52690
thermo_style    custom step temp press pe ke
thermo          100
run             100
Step Temp Press PotEng KinEng
103100            1 -0.0033187589    20.515145        1.485
Loop time of 0.00199199 on 1 procs for 100 steps with 100 atoms

unfix 1
unfix 2

pair_style    lj/cut/soft 1.0 1.0 1.5
pair_coeff    1 2 0.2 1.0 0.21700000000000008
pair_style    lj/cut/soft 1.0 1.0 1.5
pair_coeff    1 1 0.2 1.0 0.21700000000000008
pair_style    lj/cut/soft 1.0 1.0 1.5
pair_coeff    2 2 0.5 1.0 0.21700000000000008
velocity        all scale 1.0
fix             1 all nve/limit 1.5
fix             2 all langevin 1.0 1.0 1 52690
thermo_style    custom step temp press pe ke
thermo          100
run             100
Step Temp Press PotEng KinEng
103200            1  -0.01508417    20.455629        1.485
Loop time of 0.00205517 on 1 procs for 100 steps with 100 atoms

unfix 1
unfix 2

pair_style    lj/cut/soft 1.0 1.0 1.5
pair_coeff    1 2 0.2 1.0 0.2260000000000001
pair_style    lj/cut/soft 1.0 1.0 1.5
pair_coeff    1 1 0.2 1.0 0.2260000000000001
pair_style    lj/cut/soft 1.0 1.0 1.5
pair_coeff    2 2 0.5 1.0 0.2260000000000001
velocity        all scale 1.0
fix             1 all nve/limit 1.5
fix             2 all langevin 1.0 1.0 1 52690
thermo_style    custom step temp press pe ke
thermo          100
run             100
Step Temp Press PotEng KinEng
103300            1 0.0025490488    20.577409        1.485
Loop time of 0.00204492 on 1 procs for 100 steps with 100 atoms

unfix 1
unfix 2

pair_style    lj/cut/soft 1.0 1.0 1.5
pair_coeff    1 2 0.2 1.0 0.2350000000000001
pair_style    lj/cut/soft 1.0 1.0 1.5
pair_coeff    1 1 0.2 1.0 0.2350000000000001
pair_style    lj/cut/soft 1.0 1.0 1.5
pair_coeff    2 2 0.5 1.0 0.2350000000000001
velocity        all scale 1.0
fix             1 all nve/limit 1.5
fix             2 all langevin 1.0 1.0 1 52690
thermo_style    custom step temp press pe ke
thermo          100
run             100
Step Temp Press PotEng KinEng
103400            1 -0.0089966081    20.495429        1.485
Loop time of 0.00200987 on 1 procs for 100 steps with 100 atoms

unfix 1
unfix 2

pair_style    lj/cut/soft 1.0 1.0 1.5
pair_coeff    1 2 0.2 1.0 0.2440000000000001
pair_style    lj/cut/soft 1.0 1.0 1.5
pair_coeff    1 1 0.2 1.0 0.2440000000000001
pair_style    lj/cut/soft 1.0 1.0 1.5
pair_coeff    2 2 0.5 1.0 0.2440000000000001
velocity        all scale 1.0
fix             1 all nve/limit 1.5
fix             2 all langevin 1.0 1.0 1 52690
thermo_style    custom step temp press pe ke
thermo          100
run             100
Step Temp Press PotEng KinEng
103500            1 -0.0066315878    20.516015        1.485
Loop time of 0.00206685 on 1 procs for 100 steps with 100 atoms

unfix 1
unfix 2

pair_style    lj/cut/soft 1.0 1.0 1.5
pair_coeff    1 2 0.2 1.0 0.2530000000000001
pair_style    lj/cut/soft 1.0 1.0 1.5
pair_coeff    1 1 0.2 1.0 0.2530000000000001
pair_style    lj/cut/soft 1.0 1.0 1.5
pair_coeff    2 2 0.5 1.0 0.2530000000000001
velocity        all scale 1.0
fix             1 all nve/limit 1.5
fix             2 all langevin 1.0 1.0 1 52690
thermo_style    custom step temp press pe ke
thermo          100
run             100
Step Temp Press PotEng KinEng
103600            1 0.0096006928    20.423122        1.485
Loop time of 0.00193501 on 1 procs for 100 steps with 100 atoms

unfix 1
unfix 2

pair_style    lj/cut/soft 1.0 1.0 1.5
pair_coeff    1 2 0.2 1.0 0.2620000000000001
pair_style    lj/cut/soft 1.0 1.0 1.5
pair_coeff    1 1 0.2 1.0 0.2620000000000001
pair_style    lj/cut/soft 1.0 1.0 1.5
pair_coeff    2 2 0.5 1.0 0.2620000000000001
velocity        all scale 1.0
fix             1 all nve/limit 1.5
fix             2 all langevin 1.0 1.0 1 52690
thermo_style    custom step temp press pe ke
thermo          100
run             100
Step Temp Press PotEng KinEng
103700            1 -0.0046875882    20.407972        1.485
Loop time of 0.00183201 on 1 procs for 100 steps with 100 atoms

unfix 1
unfix 2

pair_style    lj/cut/soft 1.0 1.0 1.5
pair_coeff    1 2 0.2 1.0 0.27100000000000013
pair_style    lj/cut/soft 1.0 1.0 1.5
pair_coeff    1 1 0.2 1.0 0.27100000000000013
pair_style    lj/cut/soft 1.0 1.0 1.5
pair_coeff    2 2 0.5 1.0 0.27100000000000013
velocity        all scale 1.0
fix             1 all nve/limit 1.5
fix             2 all langevin 1.0 1.0 1 52690
thermo_style    custom step temp press pe ke
thermo          100
run             100
Step Temp Press PotEng KinEng
103800            1 -0.011498958    20.527711        1.485
Loop time of 0.00177312 on 1 procs for 100 steps with 100 atoms

unfix 1
unfix 2

pair_style    lj/cut/soft 1.0 1.0 1.5
pair_coeff    1 2 0.2 1.0 0.28000000000000014
pair_style    lj/cut/soft 1.0 1.0 1.5
pair_coeff    1 1 0.2 1.0 0.28000000000000014
pair_style    lj/cut/soft 1.0 1.0 1.5
pair_coeff    2 2 0.5 1.0 0.28000000000000014
velocity        all scale 1.0
fix             1 all nve/limit 1.5
fix             2 all langevin 1.0 1.0 1 52690
thermo_style    custom step temp press pe ke
thermo          100
run             100
Loop time of 0.0019269 on 1 procs for 100 steps with 100 atoms

unfix 1
unfix 2

pair_style    lj/cut/soft 1.0 1.0 1.5
pair_coeff    1 2 0.2 1.0 0.28900000000000015
pair_style    lj/cut/soft 1.0 1.0 1.5
pair_coeff    1 1 0.2 1.0 0.28900000000000015
pair_style    lj/cut/soft 1.0 1.0 1.5
pair_coeff    2 2 0.5 1.0 0.28900000000000015
velocity        all scale 1.0
fix             1 all nve/limit 1.5
fix             2 all langevin 1.0 1.0 1 52690
thermo_style    custom step temp press pe ke
thermo          100
run             100
Loop time of 0.0017159 on 1 procs for 100 steps with 100 atoms

unfix 1
unfix 2

pair_style    lj/cut/soft 1.0 1.0 1.5
pair_coeff    1 2 0.2 1.0 0.29800000000000015
pair_style    lj/cut/soft 1.0 1.0 1.5
pair_coeff    1 1 0.2 1.0 0.29800000000000015
pair_style    lj/cut/soft 1.0 1.0 1.5
pair_coeff    2 2 0.5 1.0 0.29800000000000015
velocity        all scale 1.0
fix             1 all nve/limit 1.5
fix             2 all langevin 1.0 1.0 1 52690
thermo_style    custom step temp press pe ke
thermo          100
run             100
Loop time of 0.00183201 on 1 procs for 100 steps with 100 atoms

unfix 1
unfix 2

pair_style    lj/cut/soft 1.0 1.0 1.5
pair_coeff    1 2 0.2 1.0 0.30700000000000016
pair_style    lj/cut/soft 1.0 1.0 1.5
pair_coeff    1 1 0.2 1.0 0.30700000000000016
pair_style    lj/cut/soft 1.0 1.0 1.5
pair_coeff    2 2 0.5 1.0 0.30700000000000016
velocity        all scale 1.0
fix             1 all nve/limit 1.5
fix             2 all langevin 1.0 1.0 1 52690
thermo_style    custom step temp press pe ke
thermo          100
run             100
Loop time of 0.00177002 on 1 procs for 100 steps with 100 atoms

unfix 1
unfix 2

pair_style    lj/cut/soft 1.0 1.0 1.5
pair_coeff    1 2 0.2 1.0 0.31600000000000017
pair_style    lj/cut/soft 1.0 1.0 1.5
pair_coeff    1 1 0.2 1.0 0.31600000000000017
pair_style    lj/cut/soft 1.0 1.0 1.5
pair_coeff    2 2 0.5 1.0 0.31600000000000017
velocity        all scale 1.0
fix             1 all nve/limit 1.5
fix             2 all langevin 1.0 1.0 1 52690
thermo_style    custom step temp press pe ke
thermo          100
run             100
Loop time of 0.001616 on 1 procs for 100 steps with 100 atoms

unfix 1
unfix 2

pair_style    lj/cut/soft 1.0 1.0 1.5
pair_coeff    1 2 0.2 1.0 0.3250000000000002
pair_style    lj/cut/soft 1.0 1.0 1.5
pair_coeff    1 1 0.2 1.0 0.3250000000000002
pair_style    lj/cut/soft 1.0 1.0 1.5
pair_coeff    2 2 0.5 1.0 0.3250000000000002
velocity        all scale 1.0
fix             1 all nve/limit 1.5
fix             2 all langevin 1.0 1.0 1 52690
thermo_style    custom step temp press pe ke
thermo          100
run             100
Loop time of 0.00161791 on 1 procs for 100 steps with 100 atoms

unfix 1
unfix 2

pair_style    lj/cut/soft 1.0 1.0 1.5
pair_coeff    1 2 0.2 1.0 0.3340000000000002
pair_style    lj/cut/soft 1.0 1.0 1.5
pair_coeff    1 1 0.2 1.0 0.3340000000000002
pair_style    lj/cut/soft 1.0 1.0 1.5
pair_coeff    2 2 0.5 1.0 0.3340000000000002
velocity        all scale 1.0
fix             1 all nve/limit 1.5
fix             2 all langevin 1.0 1.0 1 52690
thermo_style    custom step temp press pe ke
thermo          100
run             100
Loop time of 0.00156903 on 1 procs for 100 steps with 100 atoms

unfix 1
unfix 2

pair_style    lj/cut/soft 1.0 1.0 1.5
pair_coeff    1 2 0.2 1.0 0.3430000000000002
pair_style    lj/cut/soft 1.0 1.0 1.5
pair_coeff    1 1 0.2 1.0 0.3430000000000002
pair_style    lj/cut/soft 1.0 1.0 1.5
pair_coeff    2 2 0.5 1.0 0.3430000000000002
velocity        all scale 1.0
fix             1 all nve/limit 1.5
fix             2 all langevin 1.0 1.0 1 52690
thermo_style    custom step temp press pe ke
thermo          100
run             100
Loop time of 0.0015471 on 1 procs for 100 steps with 100 atoms

unfix 1
unfix 2

pair_style    lj/cut/soft 1.0 1.0 1.5
pair_coeff    1 2 0.2 1.0 0.3520000000000002
pair_style    lj/cut/soft 1.0 1.0 1.5
pair_coeff    1 1 0.2 1.0 0.3520000000000002
pair_style    lj/cut/soft 1.0 1.0 1.5
pair_coeff    2 2 0.5 1.0 0.3520000000000002
velocity        all scale 1.0
fix             1 all nve/limit 1.5
fix             2 all langevin 1.0 1.0 1 52690
thermo_style    custom step temp press pe ke
thermo          100
run             100
Loop time of 0.00154114 on 1 procs for 100 steps with 100 atoms

unfix 1
unfix 2

pair_style    lj/cut/soft 1.0 1.0 1.5
pair_coeff    1 2 0.2 1.0 0.3610000000000002
pair_style    lj/cut/soft 1.0 1.0 1.5
pair_coeff    1 1 0.2 1.0 0.3610000000000002
pair_style    lj/cut/soft 1.0 1.0 1.5
pair_coeff    2 2 0.5 1.0 0.3610000000000002
velocity        all scale 1.0
fix             1 all nve/limit 1.5
fix             2 all langevin 1.0 1.0 1 52690
thermo_style    custom step temp press pe ke
thermo          100
run             100
Loop time of 0.00152707 on 1 procs for 100 steps with 100 atoms

unfix 1
unfix 2

pair_style    lj/cut/soft 1.0 1.0 1.5
pair_coeff    1 2 0.2 1.0 0.3700000000000002
pair_style    lj/cut/soft 1.0 1.0 1.5
pair_coeff    1 1 0.2 1.0 0.3700000000000002
pair_style    lj/cut/soft 1.0 1.0 1.5
pair_coeff    2 2 0.5 1.0 0.3700000000000002
velocity        all scale 1.0
fix             1 all nve/limit 1.5
fix             2 all langevin 1.0 1.0 1 52690
thermo_style    custom step temp press pe ke
thermo          100
run             100
Loop time of 0.00156283 on 1 procs for 100 steps with 100 atoms

unfix 1
unfix 2

pair_style    lj/cut/soft 1.0 1.0 1.5
pair_coeff    1 2 0.2 1.0 0.3790000000000002
pair_style    lj/cut/soft 1.0 1.0 1.5
pair_coeff    1 1 0.2 1.0 0.3790000000000002
pair_style    lj/cut/soft 1.0 1.0 1.5
pair_coeff    2 2 0.5 1.0 0.3790000000000002
velocity        all scale 1.0
fix             1 all nve/limit 1.5
fix             2 all langevin 1.0 1.0 1 52690
thermo_style    custom step temp press pe ke
thermo          100
run             100
Loop time of 0.00156498 on 1 procs for 100 steps with 100 atoms

unfix 1
unfix 2

pair_style    lj/cut/soft 1.0 1.0 1.5
pair_coeff    1 2 0.2 1.0 0.38800000000000023
pair_style    lj/cut/soft 1.0 1.0 1.5
pair_coeff    1 1 0.2 1.0 0.38800000000000023
pair_style    lj/cut/soft 1.0 1.0 1.5
pair_coeff    2 2 0.5 1.0 0.38800000000000023
velocity        all scale 1.0
fix             1 all nve/limit 1.5
fix             2 all langevin 1.0 1.0 1 52690
thermo_style    custom step temp press pe ke
thermo          100
run             100
Loop time of 0.00156212 on 1 procs for 100 steps with 100 atoms

unfix 1
unfix 2

pair_style    lj/cut/soft 1.0 1.0 1.5
pair_coeff    1 2 0.2 1.0 0.39700000000000024
pair_style    lj/cut/soft 1.0 1.0 1.5
pair_coeff    1 1 0.2 1.0 0.39700000000000024
pair_style    lj/cut/soft 1.0 1.0 1.5
pair_coeff    2 2 0.5 1.0 0.39700000000000024
velocity        all scale 1.0
fix             1 all nve/limit 1.5
fix             2 all langevin 1.0 1.0 1 52690
thermo_style    custom step temp press pe ke
thermo          100
run             100
Loop time of 0.00168204 on 1 procs for 100 steps with 100 atoms

unfix 1
unfix 2

pair_style    lj/cut/soft 1.0 1.0 1.5
pair_coeff    1 2 0.2 1.0 0.40600000000000025
pair_style    lj/cut/soft 1.0 1.0 1.5
pair_coeff    1 1 0.2 1.0 0.40600000000000025
pair_style    lj/cut/soft 1.0 1.0 1.5
pair_coeff    2 2 0.5 1.0 0.40600000000000025
velocity        all scale 1.0
fix             1 all nve/limit 1.5
fix             2 all langevin 1.0 1.0 1 52690
thermo_style    custom step temp press pe ke
thermo          100
run             100
Loop time of 0.00168395 on 1 procs for 100 steps with 100 atoms

unfix 1
unfix 2

pair_style    lj/cut/soft 1.0 1.0 1.5
pair_coeff    1 2 0.2 1.0 0.41500000000000026
pair_style    lj/cut/soft 1.0 1.0 1.5
pair_coeff    1 1 0.2 1.0 0.41500000000000026
pair_style    lj/cut/soft 1.0 1.0 1.5
pair_coeff    2 2 0.5 1.0 0.41500000000000026
velocity        all scale 1.0
fix             1 all nve/limit 1.5
fix             2 all langevin 1.0 1.0 1 52690
thermo_style    custom step temp press pe ke
thermo          100
run             100
Loop time of 0.00168991 on 1 procs for 100 steps with 100 atoms

unfix 1
unfix 2

pair_style    lj/cut/soft 1.0 1.0 1.5
pair_coeff    1 2 0.2 1.0 0.42400000000000027
pair_style    lj/cut/soft 1.0 1.0 1.5
pair_coeff    1 1 0.2 1.0 0.42400000000000027
pair_style    lj/cut/soft 1.0 1.0 1.5
pair_coeff    2 2 0.5 1.0 0.42400000000000027
velocity        all scale 1.0
fix             1 all nve/limit 1.5
fix             2 all langevin 1.0 1.0 1 52690
thermo_style    custom step temp press pe ke
thermo          100
run             100
Loop time of 0.00162292 on 1 procs for 100 steps with 100 atoms

unfix 1
unfix 2

pair_style    lj/cut/soft 1.0 1.0 1.5
pair_coeff    1 2 0.2 1.0 0.4330000000000003
pair_style    lj/cut/soft 1.0 1.0 1.5
pair_coeff    1 1 0.2 1.0 0.4330000000000003
pair_style    lj/cut/soft 1.0 1.0 1.5
pair_coeff    2 2 0.5 1.0 0.4330000000000003
velocity        all scale 1.0
fix             1 all nve/limit 1.5
fix             2 all langevin 1.0 1.0 1 52690
thermo_style    custom step temp press pe ke
thermo          100
run             100
Loop time of 0.00162721 on 1 procs for 100 steps with 100 atoms

unfix 1
unfix 2

pair_style    lj/cut/soft 1.0 1.0 1.5
pair_coeff    1 2 0.2 1.0 0.4420000000000003
pair_style    lj/cut/soft 1.0 1.0 1.5
pair_coeff    1 1 0.2 1.0 0.4420000000000003
pair_style    lj/cut/soft 1.0 1.0 1.5
pair_coeff    2 2 0.5 1.0 0.4420000000000003
velocity        all scale 1.0
fix             1 all nve/limit 1.5
fix             2 all langevin 1.0 1.0 1 52690
thermo_style    custom step temp press pe ke
thermo          100
run             100
Loop time of 0.00159788 on 1 procs for 100 steps with 100 atoms

unfix 1
unfix 2

pair_style    lj/cut/soft 1.0 1.0 1.5
pair_coeff    1 2 0.2 1.0 0.4510000000000003
pair_style    lj/cut/soft 1.0 1.0 1.5
pair_coeff    1 1 0.2 1.0 0.4510000000000003
pair_style    lj/cut/soft 1.0 1.0 1.5
pair_coeff    2 2 0.5 1.0 0.4510000000000003
velocity        all scale 1.0
fix             1 all nve/limit 1.5
fix             2 all langevin 1.0 1.0 1 52690
thermo_style    custom step temp press pe ke
thermo          100
run             100
Loop time of 0.00156903 on 1 procs for 100 steps with 100 atoms

unfix 1
unfix 2

pair_style    lj/cut/soft 1.0 1.0 1.5
pair_coeff    1 2 0.2 1.0 0.4600000000000003
pair_style    lj/cut/soft 1.0 1.0 1.5
pair_coeff    1 1 0.2 1.0 0.4600000000000003
pair_style    lj/cut/soft 1.0 1.0 1.5
pair_coeff    2 2 0.5 1.0 0.4600000000000003
velocity        all scale 1.0
fix             1 all nve/limit 1.5
fix             2 all langevin 1.0 1.0 1 52690
thermo_style    custom step temp press pe ke
thermo          100
run             100
Loop time of 0.00156617 on 1 procs for 100 steps with 100 atoms

unfix 1
unfix 2

pair_style    lj/cut/soft 1.0 1.0 1.5
pair_coeff    1 2 0.2 1.0 0.4690000000000003
pair_style    lj/cut/soft 1.0 1.0 1.5
pair_coeff    1 1 0.2 1.0 0.4690000000000003
pair_style    lj/cut/soft 1.0 1.0 1.5
pair_coeff    2 2 0.5 1.0 0.4690000000000003
velocity        all scale 1.0
fix             1 all nve/limit 1.5
fix             2 all langevin 1.0 1.0 1 52690
thermo_style    custom step temp press pe ke
thermo          100
run             100
Loop time of 0.00154519 on 1 procs for 100 steps with 100 atoms

unfix 1
unfix 2

pair_style    lj/cut/soft 1.0 1.0 1.5
pair_coeff    1 2 0.2 1.0 0.4780000000000003
pair_style    lj/cut/soft 1.0 1.0 1.5
pair_coeff    1 1 0.2 1.0 0.4780000000000003
pair_style    lj/cut/soft 1.0 1.0 1.5
pair_coeff    2 2 0.5 1.0 0.4780000000000003
velocity        all scale 1.0
fix             1 all nve/limit 1.5
fix             2 all langevin 1.0 1.0 1 52690
thermo_style    custom step temp press pe ke
thermo          100
run             100
Loop time of 0.00157905 on 1 procs for 100 steps with 100 atoms

unfix 1
unfix 2

pair_style    lj/cut/soft 1.0 1.0 1.5
pair_coeff    1 2 0.2 1.0 0.4870000000000003
pair_style    lj/cut/soft 1.0 1.0 1.5
pair_coeff    1 1 0.2 1.0 0.4870000000000003
pair_style    lj/cut/soft 1.0 1.0 1.5
pair_coeff    2 2 0.5 1.0 0.4870000000000003
velocity        all scale 1.0
fix             1 all nve/limit 1.5
fix             2 all langevin 1.0 1.0 1 52690
thermo_style    custom step temp press pe ke
thermo          100
run             100
Loop time of 0.00170398 on 1 procs for 100 steps with 100 atoms

unfix 1
unfix 2

pair_style    lj/cut/soft 1.0 1.0 1.5
pair_coeff    1 2 0.2 1.0 0.49600000000000033
pair_style    lj/cut/soft 1.0 1.0 1.5
pair_coeff    1 1 0.2 1.0 0.49600000000000033
pair_style    lj/cut/soft 1.0 1.0 1.5
pair_coeff    2 2 0.5 1.0 0.49600000000000033
velocity        all scale 1.0
fix             1 all nve/limit 1.5
fix             2 all langevin 1.0 1.0 1 52690
thermo_style    custom step temp press pe ke
thermo          100
run             100
Loop time of 0.00173521 on 1 procs for 100 steps with 100 atoms

unfix 1
unfix 2

pair_style    lj/cut/soft 1.0 1.0 1.5
pair_coeff    1 2 0.2 1.0 0.5050000000000003
pair_style    lj/cut/soft 1.0 1.0 1.5
pair_coeff    1 1 0.2 1.0 0.5050000000000003
pair_style    lj/cut/soft 1.0 1.0 1.5
pair_coeff    2 2 0.5 1.0 0.5050000000000003
velocity        all scale 1.0
fix             1 all nve/limit 1.5
fix             2 all langevin 1.0 1.0 1 52690
thermo_style    custom step temp press pe ke
thermo          100
run             100
Loop time of 0.00161886 on 1 procs for 100 steps with 100 atoms

unfix 1
unfix 2

pair_style    lj/cut/soft 1.0 1.0 1.5
pair_coeff    1 2 0.2 1.0 0.5140000000000003
pair_style    lj/cut/soft 1.0 1.0 1.5
pair_coeff    1 1 0.2 1.0 0.5140000000000003
pair_style    lj/cut/soft 1.0 1.0 1.5
pair_coeff    2 2 0.5 1.0 0.5140000000000003
velocity        all scale 1.0
fix             1 all nve/limit 1.5
fix             2 all langevin 1.0 1.0 1 52690
thermo_style    custom step temp press pe ke
thermo          100
run             100
Loop time of 0.00164795 on 1 procs for 100 steps with 100 atoms

unfix 1
unfix 2

pair_style    lj/cut/soft 1.0 1.0 1.5
pair_coeff    1 2 0.2 1.0 0.5230000000000004
pair_style    lj/cut/soft 1.0 1.0 1.5
pair_coeff    1 1 0.2 1.0 0.5230000000000004
pair_style    lj/cut/soft 1.0 1.0 1.5
pair_coeff    2 2 0.5 1.0 0.5230000000000004
velocity        all scale 1.0
fix             1 all nve/limit 1.5
fix             2 all langevin 1.0 1.0 1 52690
thermo_style    custom step temp press pe ke
thermo          100
run             100
Loop time of 0.00176191 on 1 procs for 100 steps with 100 atoms

unfix 1
unfix 2

pair_style    lj/cut/soft 1.0 1.0 1.5
pair_coeff    1 2 0.2 1.0 0.5320000000000004
pair_style    lj/cut/soft 1.0 1.0 1.5
pair_coeff    1 1 0.2 1.0 0.5320000000000004
pair_style    lj/cut/soft 1.0 1.0 1.5
pair_coeff    2 2 0.5 1.0 0.5320000000000004
velocity        all scale 1.0
fix             1 all nve/limit 1.5
fix             2 all langevin 1.0 1.0 1 52690
thermo_style    custom step temp press pe ke
thermo          100
run             100
Loop time of 0.00162387 on 1 procs for 100 steps with 100 atoms

unfix 1
unfix 2

pair_style    lj/cut/soft 1.0 1.0 1.5
pair_coeff    1 2 0.2 1.0 0.5410000000000004
pair_style    lj/cut/soft 1.0 1.0 1.5
pair_coeff    1 1 0.2 1.0 0.5410000000000004
pair_style    lj/cut/soft 1.0 1.0 1.5
pair_coeff    2 2 0.5 1.0 0.5410000000000004
velocity        all scale 1.0
fix             1 all nve/limit 1.5
fix             2 all langevin 1.0 1.0 1 52690
thermo_style    custom step temp press pe ke
thermo          100
run             100
Loop time of 0.00158501 on 1 procs for 100 steps with 100 atoms

unfix 1
unfix 2

pair_style    lj/cut/soft 1.0 1.0 1.5
pair_coeff    1 2 0.2 1.0 0.5500000000000004
pair_style    lj/cut/soft 1.0 1.0 1.5
pair_coeff    1 1 0.2 1.0 0.5500000000000004
pair_style    lj/cut/soft 1.0 1.0 1.5
pair_coeff    2 2 0.5 1.0 0.5500000000000004
velocity        all scale 1.0
fix             1 all nve/limit 1.5
fix             2 all langevin 1.0 1.0 1 52690
thermo_style    custom step temp press pe ke
thermo          100
run             100
Loop time of 0.00153995 on 1 procs for 100 steps with 100 atoms

unfix 1
unfix 2

pair_style    lj/cut/soft 1.0 1.0 1.5
pair_coeff    1 2 0.2 1.0 0.5590000000000004
pair_style    lj/cut/soft 1.0 1.0 1.5
pair_coeff    1 1 0.2 1.0 0.5590000000000004
pair_style    lj/cut/soft 1.0 1.0 1.5
pair_coeff    2 2 0.5 1.0 0.5590000000000004
velocity        all scale 1.0
fix             1 all nve/limit 1.5
fix             2 all langevin 1.0 1.0 1 52690
thermo_style    custom step temp press pe ke
thermo          100
run             100
Loop time of 0.0014739 on 1 procs for 100 steps with 100 atoms

unfix 1
unfix 2

pair_style    lj/cut/soft 1.0 1.0 1.5
pair_coeff    1 2 0.2 1.0 0.5680000000000004
pair_style    lj/cut/soft 1.0 1.0 1.5
pair_coeff    1 1 0.2 1.0 0.5680000000000004
pair_style    lj/cut/soft 1.0 1.0 1.5
pair_coeff    2 2 0.5 1.0 0.5680000000000004
velocity        all scale 1.0
fix             1 all nve/limit 1.5
fix             2 all langevin 1.0 1.0 1 52690
thermo_style    custom step temp press pe ke
thermo          100
run             100
Loop time of 0.00149703 on 1 procs for 100 steps with 100 atoms

unfix 1
unfix 2

pair_style    lj/cut/soft 1.0 1.0 1.5
pair_coeff    1 2 0.2 1.0 0.5770000000000004
pair_style    lj/cut/soft 1.0 1.0 1.5
pair_coeff    1 1 0.2 1.0 0.5770000000000004
pair_style    lj/cut/soft 1.0 1.0 1.5
pair_coeff    2 2 0.5 1.0 0.5770000000000004
velocity        all scale 1.0
fix             1 all nve/limit 1.5
fix             2 all langevin 1.0 1.0 1 52690
thermo_style    custom step temp press pe ke
thermo          100
run             100
Loop time of 0.00148106 on 1 procs for 100 steps with 100 atoms

unfix 1
unfix 2

pair_style    lj/cut/soft 1.0 1.0 1.5
pair_coeff    1 2 0.2 1.0 0.5860000000000004
pair_style    lj/cut/soft 1.0 1.0 1.5
pair_coeff    1 1 0.2 1.0 0.5860000000000004
pair_style    lj/cut/soft 1.0 1.0 1.5
pair_coeff    2 2 0.5 1.0 0.5860000000000004
velocity        all scale 1.0
fix             1 all nve/limit 1.5
fix             2 all langevin 1.0 1.0 1 52690
thermo_style    custom step temp press pe ke
thermo          100
run             100
Loop time of 0.00145602 on 1 procs for 100 steps with 100 atoms

unfix 1
unfix 2

pair_style    lj/cut/soft 1.0 1.0 1.5
pair_coeff    1 2 0.2 1.0 0.5950000000000004
pair_style    lj/cut/soft 1.0 1.0 1.5
pair_coeff    1 1 0.2 1.0 0.5950000000000004
pair_style    lj/cut/soft 1.0 1.0 1.5
pair_coeff    2 2 0.5 1.0 0.5950000000000004
velocity        all scale 1.0
fix             1 all nve/limit 1.5
fix             2 all langevin 1.0 1.0 1 52690
thermo_style    custom step temp press pe ke
thermo          100
run             100
Loop time of 0.00145411 on 1 procs for 100 steps with 100 atoms

unfix 1
unfix 2

pair_style    lj/cut/soft 1.0 1.0 1.5
pair_coeff    1 2 0.2 1.0 0.6040000000000004
pair_style    lj/cut/soft 1.0 1.0 1.5
pair_coeff    1 1 0.2 1.0 0.6040000000000004
pair_style    lj/cut/soft 1.0 1.0 1.5
pair_coeff    2 2 0.5 1.0 0.6040000000000004
velocity        all scale 1.0
fix             1 all nve/limit 1.5
fix             2 all langevin 1.0 1.0 1 52690
thermo_style    custom step temp press pe ke
thermo          100
run             100
Loop time of 0.00155282 on 1 procs for 100 steps with 100 atoms

unfix 1
unfix 2

pair_style    lj/cut/soft 1.0 1.0 1.5
pair_coeff    1 2 0.2 1.0 0.6130000000000004
pair_style    lj/cut/soft 1.0 1.0 1.5
pair_coeff    1 1 0.2 1.0 0.6130000000000004
pair_style    lj/cut/soft 1.0 1.0 1.5
pair_coeff    2 2 0.5 1.0 0.6130000000000004
velocity        all scale 1.0
fix             1 all nve/limit 1.5
fix             2 all langevin 1.0 1.0 1 52690
thermo_style    custom step temp press pe ke
thermo          100
run             100
Loop time of 0.00145292 on 1 procs for 100 steps with 100 atoms

unfix 1
unfix 2

pair_style    lj/cut/soft 1.0 1.0 1.5
pair_coeff    1 2 0.2 1.0 0.6220000000000004
pair_style    lj/cut/soft 1.0 1.0 1.5
pair_coeff    1 1 0.2 1.0 0.6220000000000004
pair_style    lj/cut/soft 1.0 1.0 1.5
pair_coeff    2 2 0.5 1.0 0.6220000000000004
velocity        all scale 1.0
fix             1 all nve/limit 1.5
fix             2 all langevin 1.0 1.0 1 52690
thermo_style    custom step temp press pe ke
thermo          100
run             100
Loop time of 0.00146389 on 1 procs for 100 steps with 100 atoms

unfix 1
unfix 2

pair_style    lj/cut/soft 1.0 1.0 1.5
pair_coeff    1 2 0.2 1.0 0.6310000000000004
pair_style    lj/cut/soft 1.0 1.0 1.5
pair_coeff    1 1 0.2 1.0 0.6310000000000004
pair_style    lj/cut/soft 1.0 1.0 1.5
pair_coeff    2 2 0.5 1.0 0.6310000000000004
velocity        all scale 1.0
fix             1 all nve/limit 1.5
fix             2 all langevin 1.0 1.0 1 52690
thermo_style    custom step temp press pe ke
thermo          100
run             100
Loop time of 0.001436 on 1 procs for 100 steps with 100 atoms

unfix 1
unfix 2

pair_style    lj/cut/soft 1.0 1.0 1.5
pair_coeff    1 2 0.2 1.0 0.6400000000000005
pair_style    lj/cut/soft 1.0 1.0 1.5
pair_coeff    1 1 0.2 1.0 0.6400000000000005
pair_style    lj/cut/soft 1.0 1.0 1.5
pair_coeff    2 2 0.5 1.0 0.6400000000000005
velocity        all scale 1.0
fix             1 all nve/limit 1.5
fix             2 all langevin 1.0 1.0 1 52690
thermo_style    custom step temp press pe ke
thermo          100
run             100
Loop time of 0.0014441 on 1 procs for 100 steps with 100 atoms

unfix 1
unfix 2

pair_style    lj/cut/soft 1.0 1.0 1.5
pair_coeff    1 2 0.2 1.0 0.6490000000000005
pair_style    lj/cut/soft 1.0 1.0 1.5
pair_coeff    1 1 0.2 1.0 0.6490000000000005
pair_style    lj/cut/soft 1.0 1.0 1.5
pair_coeff    2 2 0.5 1.0 0.6490000000000005
velocity        all scale 1.0
fix             1 all nve/limit 1.5
fix             2 all langevin 1.0 1.0 1 52690
thermo_style    custom step temp press pe ke
thermo          100
run             100
Loop time of 0.0015111 on 1 procs for 100 steps with 100 atoms

unfix 1
unfix 2

pair_style    lj/cut/soft 1.0 1.0 1.5
pair_coeff    1 2 0.2 1.0 0.6580000000000005
pair_style    lj/cut/soft 1.0 1.0 1.5
pair_coeff    1 1 0.2 1.0 0.6580000000000005
pair_style    lj/cut/soft 1.0 1.0 1.5
pair_coeff    2 2 0.5 1.0 0.6580000000000005
velocity        all scale 1.0
fix             1 all nve/limit 1.5
fix             2 all langevin 1.0 1.0 1 52690
thermo_style    custom step temp press pe ke
thermo          100
run             100
Loop time of 0.0014081 on 1 procs for 100 steps with 100 atoms

unfix 1
unfix 2

pair_style    lj/cut/soft 1.0 1.0 1.5
pair_coeff    1 2 0.2 1.0 0.6670000000000005
pair_style    lj/cut/soft 1.0 1.0 1.5
pair_coeff    1 1 0.2 1.0 0.6670000000000005
pair_style    lj/cut/soft 1.0 1.0 1.5
pair_coeff    2 2 0.5 1.0 0.6670000000000005
velocity        all scale 1.0
fix             1 all nve/limit 1.5
fix             2 all langevin 1.0 1.0 1 52690
thermo_style    custom step temp press pe ke
thermo          100
run             100
Loop time of 0.00161099 on 1 procs for 100 steps with 100 atoms

unfix 1
unfix 2

pair_style    lj/cut/soft 1.0 1.0 1.5
pair_coeff    1 2 0.2 1.0 0.6760000000000005
pair_style    lj/cut/soft 1.0 1.0 1.5
pair_coeff    1 1 0.2 1.0 0.6760000000000005
pair_style    lj/cut/soft 1.0 1.0 1.5
pair_coeff    2 2 0.5 1.0 0.6760000000000005
velocity        all scale 1.0
fix             1 all nve/limit 1.5
fix             2 all langevin 1.0 1.0 1 52690
thermo_style    custom step temp press pe ke
thermo          100
run             100
Loop time of 0.00153279 on 1 procs for 100 steps with 100 atoms

unfix 1
unfix 2

pair_style    lj/cut/soft 1.0 1.0 1.5
pair_coeff    1 2 0.2 1.0 0.6850000000000005
pair_style    lj/cut/soft 1.0 1.0 1.5
pair_coeff    1 1 0.2 1.0 0.6850000000000005
pair_style    lj/cut/soft 1.0 1.0 1.5
pair_coeff    2 2 0.5 1.0 0.6850000000000005
velocity        all scale 1.0
fix             1 all nve/limit 1.5
fix             2 all langevin 1.0 1.0 1 52690
thermo_style    custom step temp press pe ke
thermo          100
run             100
Loop time of 0.00146103 on 1 procs for 100 steps with 100 atoms

unfix 1
unfix 2

pair_style    lj/cut/soft 1.0 1.0 1.5
pair_coeff    1 2 0.2 1.0 0.6940000000000005
pair_style    lj/cut/soft 1.0 1.0 1.5
pair_coeff    1 1 0.2 1.0 0.6940000000000005
pair_style    lj/cut/soft 1.0 1.0 1.5
pair_coeff    2 2 0.5 1.0 0.6940000000000005
velocity        all scale 1.0
fix             1 all nve/limit 1.5
fix             2 all langevin 1.0 1.0 1 52690
thermo_style    custom step temp press pe ke
thermo          100
run             100
Loop time of 0.00153399 on 1 procs for 100 steps with 100 atoms

unfix 1
unfix 2

pair_style    lj/cut/soft 1.0 1.0 1.5
pair_coeff    1 2 0.2 1.0 0.7030000000000005
pair_style    lj/cut/soft 1.0 1.0 1.5
pair_coeff    1 1 0.2 1.0 0.7030000000000005
pair_style    lj/cut/soft 1.0 1.0 1.5
pair_coeff    2 2 0.5 1.0 0.7030000000000005
velocity        all scale 1.0
fix             1 all nve/limit 1.5
fix             2 all langevin 1.0 1.0 1 52690
thermo_style    custom step temp press pe ke
thermo          100
run             100
Loop time of 0.001441 on 1 procs for 100 steps with 100 atoms

unfix 1
unfix 2

pair_style    lj/cut/soft 1.0 1.0 1.5
pair_coeff    1 2 0.2 1.0 0.7120000000000005
pair_style    lj/cut/soft 1.0 1.0 1.5
pair_coeff    1 1 0.2 1.0 0.7120000000000005
pair_style    lj/cut/soft 1.0 1.0 1.5
pair_coeff    2 2 0.5 1.0 0.7120000000000005
velocity        all scale 1.0
fix             1 all nve/limit 1.5
fix             2 all langevin 1.0 1.0 1 52690
thermo_style    custom step temp press pe ke
thermo          100
run             100
Loop time of 0.00148487 on 1 procs for 100 steps with 100 atoms

unfix 1
unfix 2

pair_style    lj/cut/soft 1.0 1.0 1.5
pair_coeff    1 2 0.2 1.0 0.7210000000000005
pair_style    lj/cut/soft 1.0 1.0 1.5
pair_coeff    1 1 0.2 1.0 0.7210000000000005
pair_style    lj/cut/soft 1.0 1.0 1.5
pair_coeff    2 2 0.5 1.0 0.7210000000000005
velocity        all scale 1.0
fix             1 all nve/limit 1.5
fix             2 all langevin 1.0 1.0 1 52690
thermo_style    custom step temp press pe ke
thermo          100
run             100
Loop time of 0.00140691 on 1 procs for 100 steps with 100 atoms

unfix 1
unfix 2

pair_style    lj/cut/soft 1.0 1.0 1.5
pair_coeff    1 2 0.2 1.0 0.7300000000000005
pair_style    lj/cut/soft 1.0 1.0 1.5
pair_coeff    1 1 0.2 1.0 0.7300000000000005
pair_style    lj/cut/soft 1.0 1.0 1.5
pair_coeff    2 2 0.5 1.0 0.7300000000000005
velocity        all scale 1.0
fix             1 all nve/limit 1.5
fix             2 all langevin 1.0 1.0 1 52690
thermo_style    custom step temp press pe ke
thermo          100
run             100
Loop time of 0.00138903 on 1 procs for 100 steps with 100 atoms

unfix 1
unfix 2

pair_style    lj/cut/soft 1.0 1.0 1.5
pair_coeff    1 2 0.2 1.0 0.7390000000000005
pair_style    lj/cut/soft 1.0 1.0 1.5
pair_coeff    1 1 0.2 1.0 0.7390000000000005
pair_style    lj/cut/soft 1.0 1.0 1.5
pair_coeff    2 2 0.5 1.0 0.7390000000000005
velocity        all scale 1.0
fix             1 all nve/limit 1.5
fix             2 all langevin 1.0 1.0 1 52690
thermo_style    custom step temp press pe ke
thermo          100
run             100
Loop time of 0.00141978 on 1 procs for 100 steps with 100 atoms

unfix 1
unfix 2

pair_style    lj/cut/soft 1.0 1.0 1.5
pair_coeff    1 2 0.2 1.0 0.7480000000000006
pair_style    lj/cut/soft 1.0 1.0 1.5
pair_coeff    1 1 0.2 1.0 0.7480000000000006
pair_style    lj/cut/soft 1.0 1.0 1.5
pair_coeff    2 2 0.5 1.0 0.7480000000000006
velocity        all scale 1.0
fix             1 all nve/limit 1.5
fix             2 all langevin 1.0 1.0 1 52690
thermo_style    custom step temp press pe ke
thermo          100
run             100
Loop time of 0.00157714 on 1 procs for 100 steps with 100 atoms

unfix 1
unfix 2

pair_style    lj/cut/soft 1.0 1.0 1.5
pair_coeff    1 2 0.2 1.0 0.7570000000000006
pair_style    lj/cut/soft 1.0 1.0 1.5
pair_coeff    1 1 0.2 1.0 0.7570000000000006
pair_style    lj/cut/soft 1.0 1.0 1.5
pair_coeff    2 2 0.5 1.0 0.7570000000000006
velocity        all scale 1.0
fix             1 all nve/limit 1.5
fix             2 all langevin 1.0 1.0 1 52690
thermo_style    custom step temp press pe ke
thermo          100
run             100
Loop time of 0.00143313 on 1 procs for 100 steps with 100 atoms

unfix 1
unfix 2

pair_style    lj/cut/soft 1.0 1.0 1.5
pair_coeff    1 2 0.2 1.0 0.7660000000000006
pair_style    lj/cut/soft 1.0 1.0 1.5
pair_coeff    1 1 0.2 1.0 0.7660000000000006
pair_style    lj/cut/soft 1.0 1.0 1.5
pair_coeff    2 2 0.5 1.0 0.7660000000000006
velocity        all scale 1.0
fix             1 all nve/limit 1.5
fix             2 all langevin 1.0 1.0 1 52690
thermo_style    custom step temp press pe ke
thermo          100
run             100
Loop time of 0.00147891 on 1 procs for 100 steps with 100 atoms

unfix 1
unfix 2

pair_style    lj/cut/soft 1.0 1.0 1.5
pair_coeff    1 2 0.2 1.0 0.7750000000000006
pair_style    lj/cut/soft 1.0 1.0 1.5
pair_coeff    1 1 0.2 1.0 0.7750000000000006
pair_style    lj/cut/soft 1.0 1.0 1.5
pair_coeff    2 2 0.5 1.0 0.7750000000000006
velocity        all scale 1.0
fix             1 all nve/limit 1.5
fix             2 all langevin 1.0 1.0 1 52690
thermo_style    custom step temp press pe ke
thermo          100
run             100
Loop time of 0.00139999 on 1 procs for 100 steps with 100 atoms

unfix 1
unfix 2

pair_style    lj/cut/soft 1.0 1.0 1.5
pair_coeff    1 2 0.2 1.0 0.7840000000000006
pair_style    lj/cut/soft 1.0 1.0 1.5
pair_coeff    1 1 0.2 1.0 0.7840000000000006
pair_style    lj/cut/soft 1.0 1.0 1.5
pair_coeff    2 2 0.5 1.0 0.7840000000000006
velocity        all scale 1.0
fix             1 all nve/limit 1.5
fix             2 all langevin 1.0 1.0 1 52690
thermo_style    custom step temp press pe ke
thermo          100
run             100
Loop time of 0.00152421 on 1 procs for 100 steps with 100 atoms

unfix 1
unfix 2

pair_style    lj/cut/soft 1.0 1.0 1.5
pair_coeff    1 2 0.2 1.0 0.7930000000000006
pair_style    lj/cut/soft 1.0 1.0 1.5
pair_coeff    1 1 0.2 1.0 0.7930000000000006
pair_style    lj/cut/soft 1.0 1.0 1.5
pair_coeff    2 2 0.5 1.0 0.7930000000000006
velocity        all scale 1.0
fix             1 all nve/limit 1.5
fix             2 all langevin 1.0 1.0 1 52690
thermo_style    custom step temp press pe ke
thermo          100
run             100
Loop time of 0.00146818 on 1 procs for 100 steps with 100 atoms

unfix 1
unfix 2

pair_style    lj/cut/soft 1.0 1.0 1.5
pair_coeff    1 2 0.2 1.0 0.8020000000000006
pair_style    lj/cut/soft 1.0 1.0 1.5
pair_coeff    1 1 0.2 1.0 0.8020000000000006
pair_style    lj/cut/soft 1.0 1.0 1.5
pair_coeff    2 2 0.5 1.0 0.8020000000000006
velocity        all scale 1.0
fix             1 all nve/limit 1.5
fix             2 all langevin 1.0 1.0 1 52690
thermo_style    custom step temp press pe ke
thermo          100
run             100
Loop time of 0.00155687 on 1 procs for 100 steps with 100 atoms

unfix 1
unfix 2

pair_style    lj/cut/soft 1.0 1.0 1.5
pair_coeff    1 2 0.2 1.0 0.8110000000000006
pair_style    lj/cut/soft 1.0 1.0 1.5
pair_coeff    1 1 0.2 1.0 0.8110000000000006
pair_style    lj/cut/soft 1.0 1.0 1.5
pair_coeff    2 2 0.5 1.0 0.8110000000000006
velocity        all scale 1.0
fix             1 all nve/limit 1.5
fix             2 all langevin 1.0 1.0 1 52690
thermo_style    custom step temp press pe ke
thermo          100
run             100
Loop time of 0.00136089 on 1 procs for 100 steps with 100 atoms

unfix 1
unfix 2

pair_style    lj/cut/soft 1.0 1.0 1.5
pair_coeff    1 2 0.2 1.0 0.8200000000000006
pair_style    lj/cut/soft 1.0 1.0 1.5
pair_coeff    1 1 0.2 1.0 0.8200000000000006
pair_style    lj/cut/soft 1.0 1.0 1.5
pair_coeff    2 2 0.5 1.0 0.8200000000000006
velocity        all scale 1.0
fix             1 all nve/limit 1.5
fix             2 all langevin 1.0 1.0 1 52690
thermo_style    custom step temp press pe ke
thermo          100
run             100
Loop time of 0.00137401 on 1 procs for 100 steps with 100 atoms

unfix 1
unfix 2

pair_style    lj/cut/soft 1.0 1.0 1.5
pair_coeff    1 2 0.2 1.0 0.8290000000000006
pair_style    lj/cut/soft 1.0 1.0 1.5
pair_coeff    1 1 0.2 1.0 0.8290000000000006
pair_style    lj/cut/soft 1.0 1.0 1.5
pair_coeff    2 2 0.5 1.0 0.8290000000000006
velocity        all scale 1.0
fix             1 all nve/limit 1.5
fix             2 all langevin 1.0 1.0 1 52690
thermo_style    custom step temp press pe ke
thermo          100
run             100
Loop time of 0.00144291 on 1 procs for 100 steps with 100 atoms

unfix 1
unfix 2

pair_style    lj/cut/soft 1.0 1.0 1.5
pair_coeff    1 2 0.2 1.0 0.8380000000000006
pair_style    lj/cut/soft 1.0 1.0 1.5
pair_coeff    1 1 0.2 1.0 0.8380000000000006
pair_style    lj/cut/soft 1.0 1.0 1.5
pair_coeff    2 2 0.5 1.0 0.8380000000000006
velocity        all scale 1.0
fix             1 all nve/limit 1.5
fix             2 all langevin 1.0 1.0 1 52690
thermo_style    custom step temp press pe ke
thermo          100
run             100
Loop time of 0.00135708 on 1 procs for 100 steps with 100 atoms

unfix 1
unfix 2

pair_style    lj/cut/soft 1.0 1.0 1.5
pair_coeff    1 2 0.2 1.0 0.8470000000000006
pair_style    lj/cut/soft 1.0 1.0 1.5
pair_coeff    1 1 0.2 1.0 0.8470000000000006
pair_style    lj/cut/soft 1.0 1.0 1.5
pair_coeff    2 2 0.5 1.0 0.8470000000000006
velocity        all scale 1.0
fix             1 all nve/limit 1.5
fix             2 all langevin 1.0 1.0 1 52690
thermo_style    custom step temp press pe ke
thermo          100
run             100
Loop time of 0.00138783 on 1 procs for 100 steps with 100 atoms

unfix 1
unfix 2

pair_style    lj/cut/soft 1.0 1.0 1.5
pair_coeff    1 2 0.2 1.0 0.8560000000000006
pair_style    lj/cut/soft 1.0 1.0 1.5
pair_coeff    1 1 0.2 1.0 0.8560000000000006
pair_style    lj/cut/soft 1.0 1.0 1.5
pair_coeff    2 2 0.5 1.0 0.8560000000000006
velocity        all scale 1.0
fix             1 all nve/limit 1.5
fix             2 all langevin 1.0 1.0 1 52690
thermo_style    custom step temp press pe ke
thermo          100
run             100
Loop time of 0.00135398 on 1 procs for 100 steps with 100 atoms

unfix 1
unfix 2

pair_style    lj/cut/soft 1.0 1.0 1.5
pair_coeff    1 2 0.2 1.0 0.8650000000000007
pair_style    lj/cut/soft 1.0 1.0 1.5
pair_coeff    1 1 0.2 1.0 0.8650000000000007
pair_style    lj/cut/soft 1.0 1.0 1.5
pair_coeff    2 2 0.5 1.0 0.8650000000000007
velocity        all scale 1.0
fix             1 all nve/limit 1.5
fix             2 all langevin 1.0 1.0 1 52690
thermo_style    custom step temp press pe ke
thermo          100
run             100
Loop time of 0.00149488 on 1 procs for 100 steps with 100 atoms

unfix 1
unfix 2

pair_style    lj/cut/soft 1.0 1.0 1.5
pair_coeff    1 2 0.2 1.0 0.8740000000000007
pair_style    lj/cut/soft 1.0 1.0 1.5
pair_coeff    1 1 0.2 1.0 0.8740000000000007
pair_style    lj/cut/soft 1.0 1.0 1.5
pair_coeff    2 2 0.5 1.0 0.8740000000000007
velocity        all scale 1.0
fix             1 all nve/limit 1.5
fix             2 all langevin 1.0 1.0 1 52690
thermo_style    custom step temp press pe ke
thermo          100
run             100
Loop time of 0.00153399 on 1 procs for 100 steps with 100 atoms

unfix 1
unfix 2

pair_style    lj/cut/soft 1.0 1.0 1.5
pair_coeff    1 2 0.2 1.0 0.8830000000000007
pair_style    lj/cut/soft 1.0 1.0 1.5
pair_coeff    1 1 0.2 1.0 0.8830000000000007
pair_style    lj/cut/soft 1.0 1.0 1.5
pair_coeff    2 2 0.5 1.0 0.8830000000000007
velocity        all scale 1.0
fix             1 all nve/limit 1.5
fix             2 all langevin 1.0 1.0 1 52690
thermo_style    custom step temp press pe ke
thermo          100
run             100
Loop time of 0.00142789 on 1 procs for 100 steps with 100 atoms

unfix 1
unfix 2

pair_style    lj/cut/soft 1.0 1.0 1.5
pair_coeff    1 2 0.2 1.0 0.8920000000000007
pair_style    lj/cut/soft 1.0 1.0 1.5
pair_coeff    1 1 0.2 1.0 0.8920000000000007
pair_style    lj/cut/soft 1.0 1.0 1.5
pair_coeff    2 2 0.5 1.0 0.8920000000000007
velocity        all scale 1.0
fix             1 all nve/limit 1.5
fix             2 all langevin 1.0 1.0 1 52690
thermo_style    custom step temp press pe ke
thermo          100
run             100
Loop time of 0.00148892 on 1 procs for 100 steps with 100 atoms

unfix 1
unfix 2

pair_style    lj/cut/soft 1.0 1.0 1.5
pair_coeff    1 2 0.2 1.0 0.9010000000000007
pair_style    lj/cut/soft 1.0 1.0 1.5
pair_coeff    1 1 0.2 1.0 0.9010000000000007
pair_style    lj/cut/soft 1.0 1.0 1.5
pair_coeff    2 2 0.5 1.0 0.9010000000000007
velocity        all scale 1.0
fix             1 all nve/limit 1.5
fix             2 all langevin 1.0 1.0 1 52690
thermo_style    custom step temp press pe ke
thermo          100
run             100
Loop time of 0.00140285 on 1 procs for 100 steps with 100 atoms

unfix 1
unfix 2

pair_style    lj/cut/soft 1.0 1.0 1.5
pair_coeff    1 2 0.2 1.0 0.9100000000000007
pair_style    lj/cut/soft 1.0 1.0 1.5
pair_coeff    1 1 0.2 1.0 0.9100000000000007
pair_style    lj/cut/soft 1.0 1.0 1.5
pair_coeff    2 2 0.5 1.0 0.9100000000000007
velocity        all scale 1.0
fix             1 all nve/limit 1.5
fix             2 all langevin 1.0 1.0 1 52690
thermo_style    custom step temp press pe ke
thermo          100
run             100
Loop time of 0.00150514 on 1 procs for 100 steps with 100 atoms

unfix 1
unfix 2

pair_style    lj/cut/soft 1.0 1.0 1.5
pair_coeff    1 2 0.2 1.0 0.9190000000000007
pair_style    lj/cut/soft 1.0 1.0 1.5
pair_coeff    1 1 0.2 1.0 0.9190000000000007
pair_style    lj/cut/soft 1.0 1.0 1.5
pair_coeff    2 2 0.5 1.0 0.9190000000000007
velocity        all scale 1.0
fix             1 all nve/limit 1.5
fix             2 all langevin 1.0 1.0 1 52690
thermo_style    custom step temp press pe ke
thermo          100
run             100
Loop time of 0.00142717 on 1 procs for 100 steps with 100 atoms

unfix 1
unfix 2

pair_style    lj/cut/soft 1.0 1.0 1.5
pair_coeff    1 2 0.2 1.0 0.9280000000000007
pair_style    lj/cut/soft 1.0 1.0 1.5
pair_coeff    1 1 0.2 1.0 0.9280000000000007
pair_style    lj/cut/soft 1.0 1.0 1.5
pair_coeff    2 2 0.5 1.0 0.9280000000000007
velocity        all scale 1.0
fix             1 all nve/limit 1.5
fix             2 all langevin 1.0 1.0 1 52690
thermo_style    custom step temp press pe ke
thermo          100
run             100
Loop time of 0.00138903 on 1 procs for 100 steps with 100 atoms

unfix 1
unfix 2

pair_style    lj/cut/soft 1.0 1.0 1.5
pair_coeff    1 2 0.2 1.0 0.9370000000000007
pair_style    lj/cut/soft 1.0 1.0 1.5
pair_coeff    1 1 0.2 1.0 0.9370000000000007
pair_style    lj/cut/soft 1.0 1.0 1.5
pair_coeff    2 2 0.5 1.0 0.9370000000000007
velocity        all scale 1.0
fix             1 all nve/limit 1.5
fix             2 all langevin 1.0 1.0 1 52690
thermo_style    custom step temp press pe ke
thermo          100
run             100
Loop time of 0.0014441 on 1 procs for 100 steps with 100 atoms

unfix 1
unfix 2

pair_style    lj/cut/soft 1.0 1.0 1.5
pair_coeff    1 2 0.2 1.0 0.9460000000000007
pair_style    lj/cut/soft 1.0 1.0 1.5
pair_coeff    1 1 0.2 1.0 0.9460000000000007
pair_style    lj/cut/soft 1.0 1.0 1.5
pair_coeff    2 2 0.5 1.0 0.9460000000000007
velocity        all scale 1.0
fix             1 all nve/limit 1.5
fix             2 all langevin 1.0 1.0 1 52690
thermo_style    custom step temp press pe ke
thermo          100
run             100
Loop time of 0.00160503 on 1 procs for 100 steps with 100 atoms

unfix 1
unfix 2

pair_style    lj/cut/soft 1.0 1.0 1.5
pair_coeff    1 2 0.2 1.0 0.9550000000000007
pair_style    lj/cut/soft 1.0 1.0 1.5
pair_coeff    1 1 0.2 1.0 0.9550000000000007
pair_style    lj/cut/soft 1.0 1.0 1.5
pair_coeff    2 2 0.5 1.0 0.9550000000000007
velocity        all scale 1.0
fix             1 all nve/limit 1.5
fix             2 all langevin 1.0 1.0 1 52690
thermo_style    custom step temp press pe ke
thermo          100
run             100
Loop time of 0.00148702 on 1 procs for 100 steps with 100 atoms

unfix 1
unfix 2

pair_style    lj/cut/soft 1.0 1.0 1.5
pair_coeff    1 2 0.2 1.0 0.9640000000000007
pair_style    lj/cut/soft 1.0 1.0 1.5
pair_coeff    1 1 0.2 1.0 0.9640000000000007
pair_style    lj/cut/soft 1.0 1.0 1.5
pair_coeff    2 2 0.5 1.0 0.9640000000000007
velocity        all scale 1.0
fix             1 all nve/limit 1.5
fix             2 all langevin 1.0 1.0 1 52690
thermo_style    custom step temp press pe ke
thermo          100
run             100
Loop time of 0.00147796 on 1 procs for 100 steps with 100 atoms

unfix 1
unfix 2

pair_style    lj/cut/soft 1.0 1.0 1.5
pair_coeff    1 2 0.2 1.0 0.9730000000000008
pair_style    lj/cut/soft 1.0 1.0 1.5
pair_coeff    1 1 0.2 1.0 0.9730000000000008
pair_style    lj/cut/soft 1.0 1.0 1.5
pair_coeff    2 2 0.5 1.0 0.9730000000000008
velocity        all scale 1.0
fix             1 all nve/limit 1.5
fix             2 all langevin 1.0 1.0 1 52690
thermo_style    custom step temp press pe ke
thermo          100
run             100
Loop time of 0.00150895 on 1 procs for 100 steps with 100 atoms

unfix 1
unfix 2

pair_style    lj/cut/soft 1.0 1.0 1.5
pair_coeff    1 2 0.2 1.0 0.9820000000000008
pair_style    lj/cut/soft 1.0 1.0 1.5
pair_coeff    1 1 0.2 1.0 0.9820000000000008
pair_style    lj/cut/soft 1.0 1.0 1.5
pair_coeff    2 2 0.5 1.0 0.9820000000000008
velocity        all scale 1.0
fix             1 all nve/limit 1.5
fix             2 all langevin 1.0 1.0 1 52690
thermo_style    custom step temp press pe ke
thermo          100
run             100
Loop time of 0.00169301 on 1 procs for 100 steps with 100 atoms

unfix 1
unfix 2

pair_style    lj/cut/soft 1.0 1.0 1.5
pair_coeff    1 2 0.2 1.0 0.9910000000000008
pair_style    lj/cut/soft 1.0 1.0 1.5
pair_coeff    1 1 0.2 1.0 0.9910000000000008
pair_style    lj/cut/soft 1.0 1.0 1.5
pair_coeff    2 2 0.5 1.0 0.9910000000000008
velocity        all scale 1.0
fix             1 all nve/limit 1.5
fix             2 all langevin 1.0 1.0 1 52690
thermo_style    custom step temp press pe ke
thermo          100
run             100
Loop time of 0.00164008 on 1 procs for 100 steps with 100 atoms

unfix 1
unfix 2

pair_style    lj/cut/soft 1.0 1.0 1.5
pair_coeff    1 2 0.2 1.0 1.0000000000000007
pair_style    lj/cut/soft 1.0 1.0 1.5
pair_coeff    1 1 0.2 1.0 1.0000000000000007
pair_style    lj/cut/soft 1.0 1.0 1.5
pair_coeff    2 2 0.5 1.0 1.0000000000000007
velocity        all scale 1.0
fix             1 all nve/limit 1.5
fix             2 all langevin 1.0 1.0 1 52690
thermo_style    custom step temp press pe ke
thermo          100
run             100
Loop time of 0.00156903 on 1 procs for 100 steps with 100 atoms

unfix 1
unfix 2

#---------------------------------------------------------------------------------------------------
# Minimize
#---------------------------------------------------------------------------------------------------
minimize 1.0e-5 1.0e-8 10000 10000
Loop time of 0.000311852 on 1 procs for 8 steps with 100 atoms

Minimization stats:
  Stopping criterion = energy tolerance
  Energy initial, next-to-last, final =
  Force two-norm initial, final = 431.58 15.9314
  Force max component initial, final = 90.1623 4.25085
  Final line search alpha, max atom move = 0.0068939 0.0293049
  Iterations, force evaluations = 8 16

#---------------------------------------------------------------------------------------------------
# EQUILIBRATION STAGE 2
#---------------------------------------------------------------------------------------------------
pair_style    lj/cut 1.5
pair_coeff    1 1 0.2 1.0
pair_style    lj/cut 3.0
pair_coeff    1 2 0.2 1.5
pair_style    lj/cut 3.5
pair_coeff    2 2 0.5 1.0

velocity        all scale 1.0
fix             1 all nve/limit 1.5
fix             2 all langevin 1.0 1.0 1 58841
thermo_style    custom step temp press pe ke
thermo          100
run             10000
  update every 10 steps, delay 10 steps, check yes
Loop time of 0.216381 on 1 procs for 10000 steps with 100 atoms

unfix 1
unfix 2
write_restart   restart.int_settings.in.polylattice2

Please see the log.cite file for references relevant to this simulation
